IEEE data/010_bus/bpa/010bpa.dat
(POWERFLOW,CASEID=EMS,PROJECT=TEST)
/P_INPUT_LIST,FULL\
/P_OUTPUT_LIST,FULL\
/P_ANALYSIS_RPT,LEVEL=4\
/TOLERANCE,AIPOWER=0.0001,Q=0.0001\
/SOL_ITER,DECOUPLED=4,CURRENT=0,NEWTON=30\
/NETWORK_DATA\
.234567890*234567890*234567890*234567890*234567890*234567890*234567890*234567890
BS    bus-1    100 1                      3557.99990-99990980                                                                                                                                                                                                                                              
B     bus-2    100 1                                                                                                                                                                                                                                                                                       
BQ    bus-3    100 1                  99991500.725. -200.0964                                                                                                                                                                                                                                              
B     bus-4    100 1                                                                                                                                                                                                                                                                                       
B     bus-5    100 1              868.                                                                                                                                                                                                                                                                     
BQ    bus-6    100 1                  99991094.700. -200.0972                                                                                                                                                                                                                                              
B     bus-7    100 13000.1800.    1500                                                                                                                                                                                                                                                                     
B     bus-8    100 1              300.                                                                                                                                                                                                                                                                     
B     bus-9    100 1                                                                                                                                                                                                                                                                                       
B     bus-10   100 13000.                                                                                                                                                                                                                                                                                  
-999
.234567890*234567890*234567890*234567890*234567890*234567890*234567890*234567890
.234567890*234567890*234567890*234567890*234567890*234567890*234567890*234567890
L     bus-4    100 bus-2    1001            .004                                                                                                                                                                                                                                                           
L     bus-5    100 bus-4    1001      .0015 .0288       117300                                                                                                                                                                                                                                             
L     bus-5    100 bus-4    1002      .0015 .0288       117300                                                                                                                                                                                                                                             
L     bus-5    100 bus-4    1003      .0015 .0288       117300                                                                                                                                                                                                                                             
L     bus-5    100 bus-4    1004      .0015 .0288       117300                                                                                                                                                                                                                                             
L     bus-5    100 bus-4    1005      .0015 .0288       117300                                                                                                                                                                                                                                             
L     bus-9    100 bus-8    1001      .0009 .00303                                                                                                                                                                                                                                                         
T     bus-1    100 bus-2    1001            .00182            100. 11291                                                                                                                                                                                                                                   
T     bus-3    100 bus-4    1001            .00411            100. 11291                                                                                                                                                                                                                                   
T     bus-6    100 bus-5    1001            .00571            100. 11082                                                                                                                                                                                                                                   
T     bus-7    100 bus-5    100             .00309            1000010660                                                                                                                                                                                                                                   
T     bus-8    100 bus-5    100             .00305            1000010600                                                                                                                                                                                                                                   
T     bus-10   100 bus-9    100             .00095            1000097.48                                                                                                                                                                                                                                   
.234567890*234567890*234567890*234567890*234567890*234567890*234567890*234567890
(END)